CSEE-TAS-173/CEPRI-TAS-173.dat
(POWERFLOW,CASEID=TEST,PROJECT=TEST300)
/P_INPUT_LIST,FULL\
/P_OUTPUT_LIST,FULL\
/RPT_SORT=ZONE\
/P_ANALYSIS_RPT,LEVEL=4\
/NEW_BASE,FILE=TEST300.bse\
/PF_MAP,FILE=TEST300.MAP\
/MVA_BASE=100\
/TOLERANCE,AIPOWER=0.0001,Q=0.0001\
/SOL_ITER,DECOUPLED=4,CURRENT=0,NEWTON=30\
/NETWORK_DATA\

...直流1数据
B     LCC1送端525.1A              300.                   1.0     
                 
                   
B     LCC1受端525.1A              100.                   1.0            
L     LCC1受端525. bus1A-13525.1             .0001
                                  
BD    LCC1送P1347.1A    2 20.    5. 100.100. 500. LCC1送端525 
BD    LCC1送N1347.1A    2 20.    5. 100.100. 500. LCC1送端525
BD    LCC1受P2325.1B    2 20.    5. 100.100. 500. LCC1受端525
BD    LCC1受N2325.1B    2 20.    5. 100.100. 500. LCC1受端525
LD    LCC1送P1347. LCC1受P2325.  500 8.56  1354.       R100.  800. 15. 17.2110
LD    LCC1送N1347. LCC1受N2325.  500.8.56  1354.       R100.  800. 15. 17.2110
T     LCC1送端525. LCC1送P1347.  432.       .0348              525.347.
T     LCC1送端525. LCC1送N1347.  432.       .0348              525.347.
T     LCC1受端525. LCC1受P2325.  432.       .0348              525.325.
T     LCC1受端525. LCC1受N2325.  432.       .0348              525.325.
R     LCC1送端525.1LCC1送P1347.  LCC1送P1347.543.7448.7
R     LCC1送端525.1LCC1送N1347.  LCC1送N1347.543.7448.7
R     LCC1受端525.1LCC1受P2325.  LCC1受P2325.543.7448.7
R     LCC1受端525.1LCC1受N2325.  LCC1受N2325.543.7448.7


L     LCC1送端525. 等LCC1送525.              .0001 

BS    等LCC1送525.D                   99999999.9999.-9999  1.



...直流2数据
B     LCC2送端525.1A              300.                   1.0     
L     LCC2送端525. bus1B-11525.1             .0001 
                  
BE    LCC2受端525.1A              400.                   1.0            
                                     
BD    LCC2送P1347.1A    2 20.    5. 100.100. 500. LCC2送端525 
BD    LCC2送N1347.1A    2 20.    5. 100.100. 500. LCC2送端525
BD    LCC2受P2325.1B    2 20.    5. 100.100. 500. LCC2受端525
BD    LCC2受N2325.1B    2 20.    5. 100.100. 500. LCC2受端525
LD    LCC2送P1347. LCC2受P2325.  500 8.56  1354.       R400.  800. 15. 17.2110
LD    LCC2送N1347. LCC2受N2325.  500.8.56  1354.       R400.  800. 15. 17.2110
T     LCC2送端525. LCC2送P1347.  432.       .0348              525.347.
T     LCC2送端525. LCC2送N1347.  432.       .0348              525.347.
T     LCC2受端525. LCC2受P2325.  432.       .0348              525.325.
T     LCC2受端525. LCC2受N2325.  432.       .0348              525.325.
R     LCC2送端525.1LCC2送P1347.  LCC2送P1347.543.7448.7   
R     LCC2送端525.1LCC2送N1347.  LCC2送N1347.543.7448.7
R     LCC2受端525.1LCC2受P2325.  LCC2受P2325.543.7448.7
R     LCC2受端525.1LCC2受N2325.  LCC2受N2325.543.7448.7

L     LCC2受端525. 等LCC2受525.              .0001 


BS    等LCC2受525.D                   99999999.9999.-9999  1.


...直流3数据
B     LCC3送端525.1A              400.                   1.0     
L     LCC3送端525. bus1B-7 525.              .0001                      
B     LCC3受端525.1A              400.                   1.0            
                                    
BD    LCC3送P1347.1A    2 20.    5. 100.100. 500. LCC3送端525 
BD    LCC3送N1347.1A    2 20.    5. 100.100. 500. LCC3送端525
BD    LCC3受P2325.1B    2 20.    5. 100.100. 500. LCC3受端525
BD    LCC3受N2325.1B    2 20.    5. 100.100. 500. LCC3受端525
LD    LCC3送P1347. LCC3受P2325.  500 8.56  1354.       R400.  800. 15. 17.2110
LD    LCC3送N1347. LCC3受N2325.  500.8.56  1354.       R400.  800. 15. 17.2110
T     LCC3送端525. LCC3送P1347.  432.       .0348              525.347.
T     LCC3送端525. LCC3送N1347.  432.       .0348              525.347.
T     LCC3受端525. LCC3受P2325.  432.       .0348              525.325.
T     LCC3受端525. LCC3受N2325.  432.       .0348              525.325.
R     LCC3送端525.1LCC3送P1347.  LCC3送P1347.533.7438.7   
R     LCC3送端525.1LCC3送N1347.  LCC3送N1347.533.7438.7
R     LCC3受端525.1LCC3受P2325.  LCC3受P2325.543.7448.7
R     LCC3受端525.1LCC3受N2325.  LCC3受N2325.543.7448.7

L     LCC3受端525. 等LCC3受525.              .0001 

BS    等LCC3受525.D                   99999999.9999.-9999  1.





...直流4数据
B     LCC4送端525.1A              400.                   1.0     
L     LCC4送端525. bus1B-12525.              .0001                      
B     LCC4受端525.1A              400.                   1.0            
                                     
BD    LCC4送P1347.1A    2 20.    5. 100.100. 500. LCC4送端525 
BD    LCC4送N1347.1A    2 20.    5. 100.100. 500. LCC4送端525
BD    LCC4受P2325.1B    2 20.    5. 100.100. 500. LCC4受端525
BD    LCC4受N2325.1B    2 20.    5. 100.100. 500. LCC4受端525
LD    LCC4送P1347. LCC4受P2325.  500 8.56  1354.       R400.  800. 15. 17.2110
LD    LCC4送N1347. LCC4受N2325.  500.8.56  1354.       R400.  800. 15. 17.2110
T     LCC4送端525. LCC4送P1347.  432.       .0348              525.347.
T     LCC4送端525. LCC4送N1347.  432.       .0348              525.347.
T     LCC4受端525. LCC4受P2325.  432.       .0348              525.325.
T     LCC4受端525. LCC4受N2325.  432.       .0348              525.325.
R     LCC4送端525.1LCC4送P1347.  LCC4送P1347.543.7448.7
R     LCC4送端525.1LCC4送N1347.  LCC4送N1347.543.7448.7
R     LCC4受端525.1LCC4受P2325.  LCC4受P2325.543.7448.7
R     LCC4受端525.1LCC4受N2325.  LCC4受N2325.543.7448.7




L     LCC4受端525. 等LCC4受525.              .0001 

BS    等LCC4受525.D                   99999999.9999.-9999  1.

.                                                                                          
B     bus1B-5 525.1B300. 90.                                                 
B     bus1B-12525.1B                                            
B     bus1B-1 525.1B320. 60.                                                
BQ    Gen1B-1a525.1B                      600. 300. 0.   1.0 
BQ    Gen1B-1 525.1B                      600. 300. 0.   1.0           
BQ    Gen1B-4 525.1B                      600. 300. 0.   1.0 
BQ    Gen1B-41525.1B                      600. 300. 0.   1.0   



L      Gen1B-4525. Gen1B-41525.              .0001 

                 
B     bus1B-11525.1B              120.                          
B     bus1B-4 525.1B                                            
B     bus1B-6 525.1B329.178.      180.                                                
B     bus1B-7 525.1B100           180                                             
BQ    Gen1B-5a525.1B                  600 600. 300. 0.   1.0
BQ    Gen1B-5 525.1B                  600 600. 300. 0.   1.0  

                  
B     bus1A-21525.FH57.9 117.     180.                   1.0                    
B     bus1A-20525.FH80.8 187.     150.                                   
B     bus1A-15525.FH50.  150.     180.                                      
B     bus1A-13525.FH226. 132.     240.                                          
B     bus1A-14525.FH200. 200.     240.                                                                                                     
B     bus1A-22525.FH36.  86.      180.                                      
B     bus1A-12525.FH400. 100.                            1.                                                 
B     bus1A-11525.FH235. 108.                                                            
B     bus1A-10525.FH169.271.6                            1.0                                                
B     bus1A-9 525.FH355.268.2     180                                               
B     bus1A-7 525.FH273.699.8                            1.                                                  
BS    Gen1A-4 525.FH                  600.600. 300. 0.   1.0                      



.受端新能源
.B     Gen风1  .69 FH                  200 200             1.0
B     Gen风1  .69 FH
.B     Gen风2  .69 FH                  200 200             1.0
B     Gen风2  .69 FH
.B     Gen风3  .69 FH                  200 200             1.0
B     Gen风3  .69 FH
.B     Gen风4  .69 FH                  200 200             1.0
B     Gen风4  .69 FH
.B     Gen风5  .69 FH                  200 200             1.0
B     Gen风5  .69 FH
.B     Gen风6  .69 FH                  200 200             1.0
B     Gen风6  .69 FH
.B     Gen光1  .4  FH                  200 100             1.0
B     Gen光1  .4  FH
.B     Gen光2  .4  FH                  200 100             1.0
B     Gen光2  .4  FH 
.B     Gen光3  .4  FH                  200 100             1.0
B     Gen光3  .4  FH
.B     Gen光4  .4  FH                  200 100             1.0
B     Gen光4  .4  FH
.B     Gen光5  .4  FH                  200 100             1.0
B     Gen光5  .4  FH
.B     Gen光6  .4  FH                  200 100             1.0
B     Gen光6  .4  FH

B     Gen风1  121.FH 
B     Gen风1S138.5FH              0
B     Gen风1  525.FH 

B     Gen风1B0  1.FH                                                 
T     Gen风1B0 1.  Gen风1  525.  120.        .0356               1.525.
T     Gen风1B0 1.  Gen风1  121.  120.       -00279               1. 121.
T     Gen风1B0 1.  Gen风1S138.5  120.       .04521               1.38.5
T     Gen风1  .69  Gen风1S138.5  120. .00335  .105            .69   38.5



B     Gen风2  121.FH 
B     Gen风2S138.5FH              0
B     Gen风2  525.FH 

B     Gen风2B0  1.FH                                                 
T     Gen风2B0 1.  Gen风2  525.  120.        .0356               1.525.
T     Gen风2B0 1.  Gen风2  121.  120.       -00279               1. 121.
T     Gen风2B0 1.  Gen风2S138.5  120.       .04521               1.38.5
T     Gen风2  .69  Gen风2S138.5  120. .00335  .105            .69   38.5


B     Gen风3  121.FH 
B     Gen风3S138.5FH              0
B     Gen风3  525.FH 

B     Gen风3B0  1.FH                                                 
T     Gen风3B0 1.  Gen风3  525.  120.        .0356               1.525.
T     Gen风3B0 1.  Gen风3  121.  120.       -00279               1. 121.
T     Gen风3B0 1.  Gen风3S138.5  120.       .04521               1.38.5
T     Gen风3  .69  Gen风3S138.5  120. .00335  .105            .69   38.5


B     Gen风4  121.FH 
B     Gen风4S138.5FH              0
B     Gen风4  525.FH 

B     Gen风4B0  1.FH                                                 
T     Gen风4B0 1.  Gen风4  525.  120.        .0356               1.525.
T     Gen风4B0 1.  Gen风4  121.  120.       -00279               1. 121.
T     Gen风4B0 1.  Gen风4S138.5  120.       .04521               1.38.5
T     Gen风4  .69  Gen风4S138.5  120. .00335  .105            .69   38.5


B     Gen风5  121.FH 
B     Gen风5S138.5FH              0
B     Gen风5  525.FH 

B     Gen风5B0  1.FH                                                 
T     Gen风5B0 1.  Gen风5  525.  120.        .0356               1.525.
T     Gen风5B0 1.  Gen风5  121.  120.       -00279               1. 121.
T     Gen风5B0 1.  Gen风5S138.5  120.       .04521               1.38.5
T     Gen风5  .69  Gen风5S138.5  120. .00335  .105            .69   38.5



B     Gen风6  121.FH 
B     Gen风6S138.5FH              0
B     Gen风6  525.FH 

B     Gen风6B0  1.FH                                                 
T     Gen风6B0 1.  Gen风6  525.  120.        .0356               1.525.
T     Gen风6B0 1.  Gen风6  121.  120.       -00279               1. 121.
T     Gen风6B0 1.  Gen风6S138.5  120.       .04521               1.38.5
T     Gen风6  .69  Gen风6S138.5  120. .00335  .105            .69   38.5



B     Gen光1  121.FH 
B     Gen光1S138.5FH              0
B     Gen光1  525.FH 

B     Gen光1B0  1.FH                                                 
T     Gen光1B0 1.  Gen光1  525.  120.        .0356               1.525.
T     Gen光1B0 1.  Gen光1  121.  120.       -00279               1. 121.
T     Gen光1B0 1.  Gen光1S138.5  120.       .04521               1.38.5
T     Gen光1  .4   Gen光1S138.5  120. .00335  .105            .4    38.5

B     Gen光2  121.FH 
B     Gen光2S138.5FH              0
B     Gen光2  525.FH 

B     Gen光2B0  1.FH                                                 
T     Gen光2B0 1.  Gen光2  525.  120.        .0356               1.525.
T     Gen光2B0 1.  Gen光2  121.  120.       -00279               1. 121.
T     Gen光2B0 1.  Gen光2S138.5  120.       .04521               1.38.5
T     Gen光2  .4   Gen光2S138.5  120. .00335  .105            .4    38.5

B     Gen光3  121.FH 
B     Gen光3S138.5FH              0
B     Gen光3  525.FH 

B     Gen光3B0  1.FH                                                 
T     Gen光3B0 1.  Gen光3  525.  120.        .0356               1.525.
T     Gen光3B0 1.  Gen光3  121.  120.       -00279               1. 121.
T     Gen光3B0 1.  Gen光3S138.5  120.       .04521               1.38.5
T     Gen光3  .4   Gen光3S138.5  120. .00335  .105            .4    38.5

B     Gen光4  121.FH 
B     Gen光4S138.5FH              0
B     Gen光4  525.FH 

B     Gen光4B0  1.FH                                                 
T     Gen光4B0 1.  Gen光4  525.  120.        .0356               1.525.
T     Gen光4B0 1.  Gen光4  121.  120.       -00279               1. 121.
T     Gen光4B0 1.  Gen光4S138.5  120.       .04521               1.38.5
T     Gen光4  .4   Gen光4S138.5  120. .00335  .105            .4    38.5

B     Gen光5  121.FH 
B     Gen光5S138.5FH              0
B     Gen光5  525.FH 

B     Gen光5B0  1.FH                                                 
T     Gen光5B0 1.  Gen光5  525.  120.        .0356               1.525.
T     Gen光5B0 1.  Gen光5  121.  120.       -00279               1. 121.
T     Gen光5B0 1.  Gen光5S138.5  120.       .04521               1.38.5
T     Gen光5  .4   Gen光5S138.5  120. .00335  .105            .4    38.5


B     Gen光6  121.FH 
B     Gen光6S138.5FH              0
B     Gen光6  525.FH 

B     Gen光6B0  1.FH                                                 
T     Gen光6B0 1.  Gen光6  525.  120.        .0356               1.525.
T     Gen光6B0 1.  Gen光6  121.  120.       -00279               1. 121.
T     Gen光6B0 1.  Gen光6S138.5  120.       .04521               1.38.5
T     Gen光6  .4   Gen光6S138.5  120. .00335  .105            .4    38.5

L     Gen风1  525. bus1A-6 525.1      .00007.00098      .00184
L     Gen风2  525. bus1A-7 525.1      .00007.00098      .00184
L     Gen风3  525. bus1A-12525.1      .00007.00098      .00184
L     Gen风4  525. bus1A-13525.1      .00007.00098      .00184
L     Gen风5  525. bus1A-14525.1      .00007.00098      .00184
L     Gen风6  525. bus1A-9 525.1      .00007.00098      .00184
L     Gen光1  525. bus1A-10525.1      .00007.00098      .00184
L     Gen光2  525. bus1A-15525.1      .00007.00098      .00184
L     Gen光3  525. bus1A-16525.1      .00007.00098      .00184
L     Gen光4  525. bus1A-17525.1      .00007.00098      .00184
L     Gen光5  525. bus1A-18525.1      .00007.00098      .00184
L     Gen光6  525. bus1A-19525.1      .00007.00098      .00184


.送端新能源

B     Gen风A  .69 FH                  200 200             1.0
B     Gen风B  .69 FH                  200 200             1.0
B     Gen风C  .69 FH                  200 200             1.0
B     Gen风D  .69 FH                  200 200             1.0
B     Gen风E  .69 FH                  200 200             1.0
B     Gen风F  .69 FH                  200 200             1.0
B     Gen光A  .4  FH                  200 100             1.0
B     Gen光B  .4  FH                  200 100             1.0
B     Gen光C  .4  FH                  200 100             1.0
B     Gen光D  .4  FH                  200 100             1.0
B     Gen光E  .4  FH                  200 100             1.0
B     Gen光F  .4  FH                  200 100             1.0


B     Gen风A  121.FH 
B     Gen风AS138.5FH              50
B     Gen风A  525.FH 

B     Gen风AB0  1.FH                                                 
T     Gen风AB0 1.  Gen风A  525.  120.        .0356               1.525.
T     Gen风AB0 1.  Gen风A  121.  120.       -00279               1. 121.
T     Gen风AB0 1.  Gen风AS138.5  120.       .04521               1.38.5
T     Gen风A  .69  Gen风AS138.5  120. .00335  .105            .69   38.5



B     Gen风B  121.FH 
B     Gen风BS138.5FH              50
B     Gen风B  525.FH 

B     Gen风BB0  1.FH                                                 
T     Gen风BB0 1.  Gen风B  525.  120.        .0356               1.525.
T     Gen风BB0 1.  Gen风B  121.  120.       -00279               1. 121.
T     Gen风BB0 1.  Gen风BS138.5  120.       .04521               1.38.5
T     Gen风B  .69  Gen风BS138.5  120. .00335  .105            .69   38.5


B     Gen风C  121.FH 
B     Gen风CS138.5FH              50
B     Gen风C  525.FH 

B     Gen风CB0  1.FH                                                 
T     Gen风CB0 1.  Gen风C  525.  120.        .0356               1.525.
T     Gen风CB0 1.  Gen风C  121.  120.       -00279               1. 121.
T     Gen风CB0 1.  Gen风CS138.5  120.       .04521               1.38.5
T     Gen风C  .69  Gen风CS138.5  120. .00335  .105            .69   38.5


B     Gen风D  121.FH 
B     Gen风DS138.5FH              50
B     Gen风D  525.FH 

B     Gen风DB0  1.FH                                                 
T     Gen风DB0 1.  Gen风D  525.  120.        .0356               1.525.
T     Gen风DB0 1.  Gen风D  121.  120.       -00279               1. 121.
T     Gen风DB0 1.  Gen风DS138.5  120.       .04521               1.38.5
T     Gen风D  .69  Gen风DS138.5  120. .00335  .105            .69   38.5


B     Gen风E  121.FH 
B     Gen风ES138.5FH              50
B     Gen风E  525.FH 

B     Gen风EB0  1.FH                                                 
T     Gen风EB0 1.  Gen风E  525.  120.        .0356               1.525.
T     Gen风EB0 1.  Gen风E  121.  120.       -00279               1. 121.
T     Gen风EB0 1.  Gen风ES138.5  120.       .04521               1.38.5
T     Gen风E  .69  Gen风ES138.5  120. .00335  .105            .69   38.5



B     Gen风F  121.FH 
B     Gen风FS138.5FH              50
B     Gen风F  525.FH 

B     Gen风FB0  1.FH                                                 
T     Gen风FB0 1.  Gen风F  525.  120.        .0356               1.525.
T     Gen风FB0 1.  Gen风F  121.  120.       -00279               1. 121.
T     Gen风FB0 1.  Gen风FS138.5  120.       .04521               1.38.5
T     Gen风F  .69  Gen风FS138.5  120. .00335  .105            .69   38.5



B     Gen光A  121.FH 
B     Gen光AS138.5FH              60
B     Gen光A  525.FH 

B     Gen光AB0  1.FH                                                 
T     Gen光AB0 1.  Gen光A  525.  120.        .0356               1.525.
T     Gen光AB0 1.  Gen光A  121.  120.       -00279               1. 121.
T     Gen光AB0 1.  Gen光AS138.5  120.       .04521               1.38.5
T     Gen光A  .4   Gen光AS138.5  120. .00335  .105            .4    38.5

B     Gen光B  121.FH 
B     Gen光BS138.5FH              60
B     Gen光B  525.FH 

B     Gen光BB0  1.FH                                                 
T     Gen光BB0 1.  Gen光B  525.  120.        .0356               1.525.
T     Gen光BB0 1.  Gen光B  121.  120.       -00279               1. 121.
T     Gen光BB0 1.  Gen光BS138.5  120.       .04521               1.38.5
T     Gen光B  .4   Gen光BS138.5  120. .00335  .105            .4    38.5

B     Gen光C  121.FH 
B     Gen光CS138.5FH              60
B     Gen光C  525.FH 

B     Gen光CB0  1.FH                                                 
T     Gen光CB0 1.  Gen光C  525.  120.        .0356               1.525.
T     Gen光CB0 1.  Gen光C  121.  120.       -00279               1. 121.
T     Gen光CB0 1.  Gen光CS138.5  120.       .04521               1.38.5
T     Gen光C  .4   Gen光CS138.5  120. .00335  .105            .4    38.5

B     Gen光D  121.FH 
B     Gen光DS138.5FH              60
B     Gen光D  525.FH 

B     Gen光DB0  1.FH                                                 
T     Gen光DB0 1.  Gen光D  525.  120.        .0356               1.525.
T     Gen光DB0 1.  Gen光D  121.  120.       -00279               1. 121.
T     Gen光DB0 1.  Gen光DS138.5  120.       .04521               1.38.5
T     Gen光D  .4   Gen光DS138.5  120. .00335  .105            .4    38.5

B     Gen光E  121.FH 
B     Gen光ES138.5FH              60
B     Gen光E  525.FH 

B     Gen光EB0  1.FH                                                 
T     Gen光EB0 1.  Gen光E  525.  120.        .0356               1.525.
T     Gen光EB0 1.  Gen光E  121.  120.       -00279               1. 121.
T     Gen光EB0 1.  Gen光ES138.5  120.       .04521               1.38.5
T     Gen光E  .4   Gen光ES138.5  120. .00335  .105            .4    38.5


B     Gen光F  121.FH 
B     Gen光FS138.5FH              60
B     Gen光F  525.FH 

B     Gen光FB0  1.FH                                                 
T     Gen光FB0 1.  Gen光F  525.  120.        .0356               1.525.
T     Gen光FB0 1.  Gen光F  121.  120.       -00279               1. 121.
T     Gen光FB0 1.  Gen光FS138.5  120.       .04521               1.38.5
T     Gen光F  .4   Gen光FS138.5  120. .00335  .105            .4    38.5

L     Gen风A  525. bus1B-4 525.1      .00007.00098      .00184
L     Gen风B  525. bus1B-5 525.1      .00007.00098      .00184
L     Gen风C  525. bus1B-8 525.1      .00007.00098      .00184
L     Gen风D  525. bus1B-10525.1      .00007.00098      .00184
L     Gen风E  525. bus1B-1 525.1      .00007.00098      .00184
L     Gen风F  525. bus1B-6 525.1      .00007.00098      .00184
L     Gen光A  525. bus1B-4 525.1      .00007.00098      .00184
L     Gen光B  525. bus1B-5 525.1      .00007.00098      .00184
L     Gen光C  525. bus1B-3 525.1      .00007.00098      .00184
L     Gen光D  525. bus1B-10525.1      .00007.00098      .00184
L     Gen光E  525. bus1B-5 525.1      .00007.00098      .00184
L     Gen光F  525. bus1B-9 525.1      .00007.00098      .00184


                                                                            
B     bus1A-19525.FH400. 150.     180.                                          
BQ    Gen1A-2 525.FH                      300. 300. 0.   1.0                  
BQ    Gen1A-1 525.FH                      300. 300. 0.   1.0                
B     bus1A-2 525.FH70.  35.                             1.0               
B     bus1A-4 525.FH200. 100.                          
B     bus1A-1 525.FH75.  50.                                              
B     bus1B-3 525.1B323.559.      360.                   1.                                                                                                      
B     bus1B-2 525.1B333. 66.5     360.                                          
B     bus1B-10525.1B376. 20.                             1.0                    
B     bus1A-5 525.FH35.  15.                                                    
B     bus1A-6 525.FH                                                                                                                                
B     bus1A-18525.FH299.995.7                                            
B     bus1A-16525.FH527. 120.     360.                                    
B     bus1A-17525.FH485. 124.     360.                                     
.BQ    Gen1A-6 525.FH                      600. 300. 0.   1.0                     
B     Gen1A-6 525.FH                                    
BQ    Gen1A-5 525.FH                      300. 150. 0.   1.0                    
                                            
B     bus1A-8 525.FH366. 120.6                                                      
                                               
B     bus1A-3 525.FH40.  20.                             1.0     
BQ    Gen1B-6 525.1B                      600. 400. 0.   1.0                 
BQ    Gen1B-3 525.1B                      1200.400. 0.   1.0                                                                     
                                                                                                                                                                                                                                                                                                                                                                                          
B     bus1B-9 525.1B300.349.17                                                                                                 
B     bus1B-8 525.1B300. 50.                                                   
BQ    Gen1B-2 525.1B                      600. 300. 0.   1.0                  
BQ    Gen1A-3 525.FH                      600. 300. 0.   1.0  
                                                               
L     bus1B-5 525. bus1B-6 525.1      .00005.00068      .03788
L     bus1B-5 525. bus1B-6 525.2      .00005.00068      .03788 
L     bus1B-12525. bus1B-11525.1      .00025.00358      .19970                  
L     bus1B-1 525. Gen1B-1 525.2      .00073.01033      .01942                  
L     bus1B-1 525. Gen1B-1 525.1      .00073.01033      .01942               
L     Gen1B-1 525. Gen1B-4 525.1      .00007.00092      .05159  
L     Gen1B-1 525. Gen1B-4 525.2      .00007.00092      .05159
L     Gen1B-1 525. bus1B-8 525.1      .00149.02101      .17324                  
L     bus1B-8 525. bus1B-11525.1      .0007 .0092       .5159                  
L     Gen1B-1 525. bus1B-4 525.1      .00071.00994      .55492
L     Gen1B-1 525. bus1B-4 525.2      .00071.00994      .55492 
L     Gen1B-4 525. bus1B-11525.1      .0008 .0116       .6453 
L     Gen1B-4 525. bus1B-11525.2      .0008 .0116       .6453
L     Gen1B-4 525. bus1B-4 525.2      .00014.00198      .11079                 
L     Gen1B-4 525. bus1B-4 525.1      .00014.0098       .01107                  
L     bus1B-6 525. bus1B-7 525.1      .00057.00799      .44622                  
L     bus1B-7 525. Gen1B-5 525.1      .00102.00937      .43484 
L     bus1B-7 525. Gen1B-5 525.2      .00102.00937      .43484 
L     bus1A-17525. bus1A-13525.1      .00027.00377      .21055                  
L     bus1A-21525. bus1A-22525.1      .00041.00575      .32134                  
L     bus1A-21525. bus1B-3 525.1      .00796.09832      .15246                              
L     bus1A-21525. bus1B-3 525.2      .00796.09832      .15246                                
L     bus1A-20525. bus1B-2 525.1      .00554.07750      .14574               
L     bus1A-20525. bus1B-2 525.2      .00554.07750      .14574               
L     bus1A-21525. bus1A-17525.1      .00028.00394      .22026                  
L     bus1A-20525. bus1A-15525.1      .00014.00197      .10984                  
L     bus1A-20525. bus1A-11525.1      .00149.02101      .17324                
L     bus1A-20525. bus1A-16525.1      .00014.00197      .10984                                
L     bus1A-20525. bus1A-21525.1      .00028.00394      .21989                                
L     bus1A-15525. bus1A-12525.1      .00019.00263      .14715                                
L     bus1A-15525. bus1A-16525.1      .00005.00066      .03674                  
L     bus1A-13525. bus1A-14525.1      .00018.00256      .14316                  
L     bus1A-13525. bus1A-12525.1      .00005.00063      .03541 
L     bus1A-13525. bus1A-12525.2      .00005.00063      .03541 
L     bus1A-18525. bus1A-22525.1      .00004.00056      .03122                  
L     bus1A-14525. bus1A-19525.1      .00004.00056      .03141                  
L     bus1A-14525. bus1A-18525.1      .00019.00270      .15096                                
L     bus1A-14525. bus1A-17525.1      .00019.00267      .14925                  
L     bus1A-12525. bus1A-7 525.1      .00082.01148      .02159
L     bus1A-12525. bus1A-7 525.2      .00082.01148      .02159
L     bus1A-12525. bus1A-16525.1      .00005.00066      .03674                               
L     bus1A-16525. bus1A-17525.1      .00005.00063      .03541                  
L     bus1A-12525. Gen1A-5 525.1      .00002.00034      .01923                  
L     bus1A-12525. Gen1A-5 525.2      .00002.00034      .01923
L     bus1A-11525. bus1A-10525.1      .00007.00100      .05578                  
L     bus1A-10525. bus1A-9 525.1      .00015.00212      .11860                  
L     bus1A-9 525. bus1A-7 525.1      .00022.00303      .16943                                 
L     bus1A-7 525. Gen1A-2 525.1      .00027.00399      .22272                                 
L     bus1A-6 525. bus1A-8 525.1      .00001.00012      .00647                  
L     Gen1A-2 525. Gen1A-1 525.1      .00023.00326      .00613                  
L     Gen1A-1 525. bus1A-5 525.1      .00007.00098      .00184                  
L     bus1A-2 525. bus1A-1 525.1      .00076.01077      .02026                  
L     bus1A-2 525. bus1A-3 525.1      .00074.01041      .01957                  
L     bus1A-4 525. bus1A-5 525.1      .00014.00194      .00364                  
L     bus1B-3 525. bus1B-2 525.1      .00002.00033      .00062 
L     bus1B-3 525. bus1B-2 525.2      .00002.00033      .00062                                                 
L     bus1B-9 525. bus1B-10525.1      .00011.00153      .00287
L     bus1B-9 525. bus1B-10525.2      .00011.00153      .00287
L     Gen1A-3 525. bus1A-6 525.1      .00012.00163      .00306                                                            
L     Gen1A-3 525. bus1A-6 525.2      .00012.00163      .00306                                                                                                                    
L     bus1A-18525. bus1A-17525.1      .00004.00061      .00114                  
L     bus1B-12525. Gen1B-6 525.1      .00006.00084      .00157
L     bus1B-12525. Gen1B-6 525.2      .00006.00084      .00157
L     Gen1B-3 525. bus1B-8 525.1      .00002.00029      .00055
L     Gen1B-3 525. bus1B-8 525.2      .00002.00029      .00055 
L     bus1A-8 525. Gen1A-4 525.1      .0005 .0069       .0129                 
L     bus1A-8 525. Gen1A-4 525.2      .0005 .0069       .0129
L     Gen1B-5 525. Gen1B-5a525.              .0001
L     Gen1B-1 525. Gen1B-1a525.              .0001                  
L     Gen1B-5 525. bus1B-12525.1      .00004.00059      .00111                      
L     Gen1A-6 525. bus1A-22525.1      .00010.00137      .00257                      
L     Gen1A-6 525. bus1A-19525.1      .00009.00134      .00251                      
L     bus1A-1 525. bus1A-4 525.1      .00006.00087      .00164                      
L     Gen1B-5 525. bus1B-10525.1      .00010.00135      .00253                      
L     Gen1B-5 525. bus1B-10525.2      .00010.00135      .00253                 
L     bus1B-5 525. Gen1B-2 525.1      .00005.00066      .00123                      
L     bus1B-5 525. Gen1B-2 525.2      .00005.00066      .00123
L     bus1B-5 525. bus1B-4 525.1      .00007.00095      .00179
L     bus1B-5 525. bus1B-4 525.2      .00007.00095      .00179
L     bus1B-3 525. bus1B-6 525.1      .00005.00066      .00125                     
L     bus1B-3 525. bus1B-6 525.2      .0005 .0066       .0125                      
L     bus1A-3 525. Gen1A-1 525.       .00015.00218      .00409                      
L     bus1B-1 525. bus1B-2 525.2      .0004 .0055      .0102                     
L     bus1B-1 525. bus1B-2 525.1      .0004 .0055       .0102                      
L     bus1A-7 525. bus1A-6 525.1      .00042.00712      .0115 
L     bus1A-7 525. bus1A-6 525.2      .00042.00712      .0115                  
L     bus1A-4 525. bus1A-6 525.       .00006.00079      .00148                      
L     bus1B-9 525. Gen1B-4 525.2      .00006.00078      .00147                    
L     bus1B-9 525. Gen1B-4 525.1      .00006.00078      .00147                     
(END)
